FoamFile
{
    version     2.0;
    format      ascii;
    class       dictionary;
    location    "system";
    object      controlDict;
}

application     transienHeatTransferFoam;

startFrom       startTime;
startTime       0;

stopAt          endTime;
endTime         100;

deltaT          0.5;

writeControl    adjustableRunTime;
writeInterval   10;

purgeWrite      0;

