FoamFile
{
    version     2.0;
    format      ascii;
    class       volScalarField;
    location    "0";
    object      T;
}

dimensions      [0 0 0 1 0 0 0];
internalField   uniform 300;
boundaryField
{
    leftWall
    {
        type            zeroGradient;
    }

    rightWall
    {
        type            zeroGradient;
    }

    topWall
    {
        type            zeroGradient;
    }

    otherWalls
    {
        type            zeroGradient;
    }
}