FoamFile
{
    version     2.0;
    format      ascii;
    class       dictionary;
    location    "system";
    object      blockMeshDict;
}

convertToMeters 1.0;

vertices
(
    (0 0 0)
    (1 0 0)
    (1 1 0)
    (0 1 0)
    (0 0 0.1)
    (1 0 0.1)
    (1 1 0.1)
    (0 1 0.1)
);

blocks
(
    hex (0 1 2 3 4 5 6 7) (40 40 10) simpleGrading (1 1 1)
);

edges
(
);

boundary
(
    leftWall
    {
        type wall;
        faces
        (
            (0 3 7 4)
        );
    }

    topWall
    {
        type wall;
        faces
        (
            (4 5 6 7)
        );
    }

    rightWall
    {
        type wall;
        faces
        (
            (1 5 6 2)
        );
    }

    otherWalls
    {
        type wall;
        faces
        (
            (0 1 5 4)
            (3 2 6 7)
            (0 1 2 3)
        );
    }
);

mergePatchPairs
(
);