/*--------------------------------*- C++ -*----------------------------------*\
| =========                 |                                                 |
| \\      /  F ield         | OpenFOAM: The Open Source CFD Toolbox           |
|  \\    /   O peration     | Version:  2.1.x                                 |
|   \\  /    A nd           | Web:      www.OpenFOAM.org                      |
|    \\/     M anipulation  |                                                 |
\*---------------------------------------------------------------------------*/
FoamFile
{
    version     2.0;
    format      ascii;
    class       dictionary;
    location    "constant";
    object      physicalProperties;
}
// * * * * * * * * * * * * * * * * * * * * * * * * * * * * * * * * * * * * * //

// Thermal conductivity [W/m/K]
kTable
(
    (300   3000)
    (400   3000)
    (600   3000)
    (800   3000)
    (1000  3000)
);

// Specific heat capacity [J/kg/K]
CpTable
(
    (300   500)
    (600   500)
    (900   500)
    (1200  500)
);

// Density [kg/m3]
rhoTable
(
    (300   7850)
    (1200  7850)
);

// Behavior outside the range: clamp or linear
outOfRange clamp;
